Version 4
SHEET 1 1912 852
WIRE -192 16 -352 16
WIRE 48 16 -128 16
WIRE 320 16 48 16
WIRE 464 16 320 16
WIRE 608 16 464 16
WIRE 720 16 608 16
WIRE 784 16 720 16
WIRE 960 16 880 16
WIRE 1056 16 960 16
WIRE 1296 16 1200 16
WIRE 1376 16 1296 16
WIRE 1472 16 1376 16
WIRE 1552 16 1472 16
WIRE 1568 16 1552 16
WIRE 720 48 720 16
WIRE -352 64 -352 16
WIRE 48 64 48 16
WIRE 608 64 608 16
WIRE 1056 112 1056 16
WIRE 1088 112 1056 112
WIRE 1200 112 1200 16
WIRE 1200 112 1168 112
WIRE 320 144 320 16
WIRE 720 144 720 128
WIRE 800 144 800 64
WIRE 800 144 720 144
WIRE 800 160 800 144
WIRE 1568 160 1568 16
WIRE 960 176 960 16
WIRE 1296 176 1296 16
WIRE 1376 176 1376 16
WIRE 1472 176 1472 16
WIRE -352 192 -352 144
WIRE 464 192 464 16
WIRE 48 208 48 128
WIRE 160 208 48 208
WIRE 272 208 240 208
WIRE 608 208 608 144
WIRE 736 208 608 208
WIRE 1088 208 1056 208
WIRE 1200 208 1168 208
WIRE 608 224 608 208
WIRE 48 240 48 208
WIRE -352 336 -352 272
WIRE 48 336 48 320
WIRE 48 336 -352 336
WIRE 320 336 320 208
WIRE 320 336 48 336
WIRE 464 336 464 256
WIRE 464 336 320 336
WIRE 608 336 608 304
WIRE 608 336 464 336
WIRE 800 336 800 256
WIRE 800 336 608 336
WIRE 960 336 960 240
WIRE 960 336 800 336
WIRE 1056 336 1056 208
WIRE 1056 336 960 336
WIRE 1200 336 1200 208
WIRE 1296 336 1296 240
WIRE 1376 336 1376 240
WIRE 1472 336 1472 240
WIRE 1568 336 1568 240
FLAG 1552 16 Output
FLAG -352 16 Input
FLAG 1296 336 0
FLAG 1376 336 0
FLAG 1568 336 0
FLAG 1472 336 0
FLAG 1200 336 0
SYMBOL Misc\\SCR 304 144 R0
SYMATTR InstName U1
SYMATTR Value P0102M
SYMBOL voltage -352 176 R0
WINDOW 123 0 0 Left 2
WINDOW 39 24 44 Left 2
WINDOW 3 24 96 Invisible 2
SYMATTR SpiceLine Rser=0.01
SYMATTR InstName V1
SYMATTR Value PWL(0 0 50100us 12V 50200us 12V 50201us 50V 50209us 50V 50210us 12V 50300us 12V)
SYMBOL res 32 224 R0
SYMATTR InstName R1
SYMATTR Value 100
SYMBOL res 256 192 R90
WINDOW 0 0 56 VBottom 2
WINDOW 3 32 56 VTop 2
SYMATTR InstName R2
SYMATTR Value 100
SYMBOL zener 64 128 R180
WINDOW 0 24 64 Left 2
WINDOW 3 24 0 Left 2
SYMATTR InstName D1
SYMATTR Value BZX84C15L
SYMATTR Description Diode
SYMATTR Type diode
SYMBOL cap 448 192 R0
SYMATTR InstName C1
SYMATTR Value 10µ
SYMATTR SpiceLine V=25V Rser=1
SYMBOL res 592 208 R0
SYMATTR InstName R3
SYMATTR Value 6k8
SYMBOL res 592 48 R0
SYMATTR InstName R4
SYMATTR Value 86k
SYMBOL npn 736 160 R0
SYMATTR InstName Q1
SYMATTR Value BC547B
SYMBOL pmos 880 64 M270
SYMATTR InstName M1
SYMATTR Value AOSP161
SYMATTR Prefix X
SYMBOL res 704 32 R0
SYMATTR InstName R5
SYMATTR Value 100k
SYMBOL cap 944 176 R0
SYMATTR InstName C2
SYMATTR Value 220µ
SYMATTR SpiceLine V=25V Rser=10
SYMBOL schottky -192 32 R270
WINDOW 0 32 32 VTop 2
WINDOW 3 0 32 VBottom 2
SYMATTR InstName D2
SYMATTR Value 1N5819
SYMATTR Description Diode
SYMATTR Type diode
SYMBOL res -368 48 R0
SYMATTR InstName FUSE
SYMATTR Value CURRENT=5A
SYMATTR Prefix X
SYMATTR SpiceModel FUSE
SYMATTR Value2 RESISTANCE=400m
SYMBOL ind2 1184 96 R90
WINDOW 0 5 56 VBottom 2
WINDOW 3 32 56 VTop 2
SYMATTR InstName L1
SYMATTR Value 50µ
SYMATTR Type ind
SYMATTR SpiceLine Rser=320m
SYMBOL ind2 1184 192 R90
WINDOW 0 4 56 VBottom 2
WINDOW 3 32 56 VTop 2
SYMATTR InstName L2
SYMATTR Value 50µ
SYMATTR Type ind
SYMATTR SpiceLine Rser=320m
SYMBOL cap 1280 176 R0
SYMATTR InstName C3
SYMATTR Value 220µ
SYMATTR SpiceLine V=25V Rser=10
SYMBOL cap 1360 176 R0
SYMATTR InstName C4
SYMATTR Value 10µ
SYMATTR SpiceLine V=25V Rser=1
SYMBOL res 1552 144 R0
SYMATTR InstName LOAD1
SYMATTR Value 1k
SYMBOL cap 1456 176 R0
SYMATTR InstName C5
SYMATTR Value 100n
SYMATTR SpiceLine V=25V Rser=0.5
TEXT -160 392 Left 2 !.inc st_standard_sensitive_scr.lib
TEXT -160 416 Left 2 !.inc AO3407.lib
TEXT -160 440 Left 2 !*.dc V1 -20 20 0.1
TEXT -56 -152 Left 2 ;When the currents gets over 500mA the fuse will be blown
TEXT -160 592 Left 2 !*FUSE:Fuse Subcircuit Parameters\n*CURRENT    = Fuse current\n*RESISTANCE = Inernal resistance\n \n.SUBCKT FUSE 1 2 PARAMS: CURRENT=1 RESISTANCE=1m\nSW1 1 2 3 0 SMOD OFF\nBNLV 3 0 V=(abs(v(1,2)))\n.MODEL SMOD SW (VT={(CURRENT*RESISTANCE)} RON=1g ROFF={RESISTANCE})\n.ENDS FUSE
TEXT -160 464 Left 2 !.tran 0 50.3ms 50ms 100n
TEXT 96 464 Left 2 ;Fast transient
TEXT 96 440 Left 2 ;Voltage sweep
TEXT 1088 -16 Left 2 !K L1 L2 1
TEXT -56 -128 Left 2 ;The fuse is 10x bigger here to account for inrush
